data_image0
_chemical_formula_structural       OC
_chemical_formula_sum              "O1 C1"
_cell_length_a       29.911097676802168
_cell_length_b       29.911097676802168
_cell_length_c       29.911097676802168
_cell_angle_alpha    59.99999999999999
_cell_angle_beta     59.99999999999999
_cell_angle_gamma    59.99999999999999

_space_group_name_H-M_alt    "P 1"
_space_group_IT_number       1

loop_
  _space_group_symop_operation_xyz
  'x, y, z'

loop_
  _atom_site_type_symbol
  _atom_site_label
  _atom_site_symmetry_multiplicity
  _atom_site_fract_x
  _atom_site_fract_y
  _atom_site_fract_z
  _atom_site_occupancy
  O   O1        1.0  0.5135971809436634  0.5135971809436634  0.4864028190563367  1.0000
  C   C1        1.0  0.4864028190563367  0.4864028190563367  0.5135971809436634  1.0000
