data_image0
_chemical_formula_structural       N2
_chemical_formula_sum              "N2"
_cell_length_a       29.882304288672252
_cell_length_b       29.882304288672252
_cell_length_c       29.882304288672252
_cell_angle_alpha    60.00000000000001
_cell_angle_beta     60.00000000000001
_cell_angle_gamma    60.00000000000001

_space_group_name_H-M_alt    "P 1"
_space_group_IT_number       1

loop_
  _space_group_symop_operation_xyz
  'x, y, z'

loop_
  _atom_site_type_symbol
  _atom_site_label
  _atom_site_symmetry_multiplicity
  _atom_site_fract_x
  _atom_site_fract_y
  _atom_site_fract_z
  _atom_site_occupancy
  N   N1        1.0  0.5133693926828138  0.5133693926828138  0.48663060731718627  1.0000
  N   N2        1.0  0.48663060731718627  0.48663060731718627  0.5133693926828138  1.0000
