data_image0
_chemical_formula_structural       H2O
_chemical_formula_sum              "H2 O1"
_cell_length_a       30.57812564563106
_cell_length_b       30.57812564563106
_cell_length_c       30.57812564563106
_cell_angle_alpha    60.00000000000001
_cell_angle_beta     60.00000000000001
_cell_angle_gamma    60.00000000000001

_space_group_name_H-M_alt    "P 1"
_space_group_IT_number       1

loop_
  _space_group_symop_operation_xyz
  'x, y, z'

loop_
  _atom_site_type_symbol
  _atom_site_label
  _atom_site_symmetry_multiplicity
  _atom_site_fract_x
  _atom_site_fract_y
  _atom_site_fract_z
  _atom_site_occupancy
  H   H1        1.0  0.518754046804181  0.481245953195819  0.48124595319581914  1.0000
  H   H2        1.0  0.48124595319581914  0.5187540468041808  0.518754046804181  1.0000
  O   O1        1.0  0.4878225881047082  0.5121774118952918  0.4878225881047082  1.0000
